&OBST ID='BINDEXFAN', XB=XMIN,XMAX,YMIN,YMAX,ZMIN,ZMAX, SURF_ID='INERT'/
&VENT ID='VINDEXFAN01', SURF_ID='HVAC', XB=XMIN,XMAX,YMIN,YMIN,ZMIN,ZMAX, RADIUS=0.225, XYZ= 0,YMIN,0/
&VENT ID='VINDEXFAN02', SURF_ID='HVAC', XB=XMIN,XMAX,YMAX,YMAX,ZMIN,ZMAX, RADIUS=0.225, XYZ=0,YMAX,0/
&HVAC ID='NINDEXFAN01', TYPE_ID='NODE', DUCT_ID='DINDEXFAN', VENT_ID='VINDEXFAN01'/
&HVAC ID='NINDEXFAN02', TYPE_ID='NODE', DUCT_ID='DINDEXFAN', VENT_ID='VINDEXFAN02'/
&HVAC ID='DINDEXFAN', TYPE_ID='DUCT', DIAMETER=0.45, VOLUME_FLOW=MYFLOWRATE, NODE_ID='NINDEXFAN01','NINDEXFAN02', ROUGHNESS=1.0E-3, LENGTH=MYLENGTH/