&OBST ID='ColdCarINDEX', XB=XMIN,XMAX,YMIN,YMAX,ZMIN,ZMAX, SURF_ID='INERT'/ 
&VENT ID='ColdcarSourceINDEX', SURF_ID='COLD CAR', XB=XMIN,XMAX,YMIN,YMAX,ZMAX,ZMAX/ 