&OBST ID='HotCar1', XB=142.6091,145.0491,214.7595,219.6395,27.4000,28.9000, SURF_ID='INERT'/ 
&VENT ID='HotcarSource1', SURF_ID='HOT CAR', XB=142.6091,145.0491,214.7595,219.6395,28.9000,28.9000/ 
&OBST ID='HotCar2', XB=145.5053,147.9453,214.2315,219.1115,27.4000,28.9000, SURF_ID='INERT'/ 
&VENT ID='HotcarSource2', SURF_ID='HOT CAR', XB=145.5053,147.9453,214.2315,219.1115,28.9000,28.9000/ 
&OBST ID='HotCar3', XB=147.6115,150.0515,214.7577,219.6377,27.4000,28.9000, SURF_ID='INERT'/ 
&VENT ID='HotcarSource3', SURF_ID='HOT CAR', XB=147.6115,150.0515,214.7577,219.6377,28.9000,28.9000/ 
&OBST ID='HotCar4', XB=151.0342,153.4742,214.2295,219.1095,27.4000,28.9000, SURF_ID='INERT'/ 
&VENT ID='HotcarSource4', SURF_ID='HOT CAR', XB=151.0342,153.4742,214.2295,219.1095,28.9000,28.9000/ 
&OBST ID='HotCar5', XB=155.2467,157.6867,214.7550,219.6350,27.4000,28.9000, SURF_ID='INERT'/ 
&VENT ID='HotcarSource5', SURF_ID='HOT CAR', XB=155.2467,157.6867,214.7550,219.6350,28.9000,28.9000/ 
&OBST ID='HotCar6', XB=157.6162,160.0562,214.4906,219.3706,27.4000,28.9000, SURF_ID='INERT'/ 
&VENT ID='HotcarSource6', SURF_ID='HOT CAR', XB=157.6162,160.0562,214.4906,219.3706,28.9000,28.9000/ 
&OBST ID='HotCar7', XB=159.7225,162.1625,215.0169,219.8969,27.4000,28.9000, SURF_ID='INERT'/ 
&VENT ID='HotcarSource7', SURF_ID='HOT CAR', XB=159.7225,162.1625,215.0169,219.8969,28.9000,28.9000/ 
&OBST ID='HotCar8', XB=162.3553,164.7953,214.4889,219.3689,27.4000,28.9000, SURF_ID='INERT'/ 
&VENT ID='HotcarSource8', SURF_ID='HOT CAR', XB=162.3553,164.7953,214.4889,219.3689,28.9000,28.9000/ 
&OBST ID='HotCar9', XB=90.7425,93.1825,154.6975,159.5775,27.4000,28.9000, SURF_ID='INERT'/ 
&VENT ID='HotcarSource9', SURF_ID='HOT CAR', XB=90.7425,93.1825,154.6975,159.5775,28.9000,28.9000/ 
&OBST ID='HotCar10', XB=93.6386,96.0786,154.4329,159.3129,27.4000,28.9000, SURF_ID='INERT'/ 
&VENT ID='HotcarSource10', SURF_ID='HOT CAR', XB=93.6386,96.0786,154.4329,159.3129,28.9000,28.9000/ 
&OBST ID='HotCar11', XB=95.7449,98.1849,154.4321,159.3121,27.4000,28.9000, SURF_ID='INERT'/ 
&VENT ID='HotcarSource11', SURF_ID='HOT CAR', XB=95.7449,98.1849,154.4321,159.3121,28.9000,28.9000/ 
&OBST ID='HotCar12', XB=98.9043,101.3443,154.4310,159.3110,27.4000,28.9000, SURF_ID='INERT'/ 
&VENT ID='HotcarSource12', SURF_ID='HOT CAR', XB=98.9043,101.3443,154.4310,159.3110,28.9000,28.9000/ 
&OBST ID='HotCar13', XB=102.3269,104.7669,154.1663,159.0463,27.4000,28.9000, SURF_ID='INERT'/ 
&VENT ID='HotcarSource13', SURF_ID='HOT CAR', XB=102.3269,104.7669,154.1663,159.0463,28.9000,28.9000/ 
&OBST ID='HotCar14', XB=104.4332,106.8732,154.4290,159.3090,27.4000,28.9000, SURF_ID='INERT'/ 
&VENT ID='HotcarSource14', SURF_ID='HOT CAR', XB=104.4332,106.8732,154.4290,159.3090,28.9000,28.9000/ 
&OBST ID='HotCar15', XB=106.5395,108.9795,154.4283,159.3083,27.4000,28.9000, SURF_ID='INERT'/ 
&VENT ID='HotcarSource15', SURF_ID='HOT CAR', XB=106.5395,108.9795,154.4283,159.3083,28.9000,28.9000/ 
&OBST ID='HotCar16', XB=109.9621,112.4021,154.6905,159.5705,27.4000,28.9000, SURF_ID='INERT'/ 
&VENT ID='HotcarSource16', SURF_ID='HOT CAR', XB=109.9621,112.4021,154.6905,159.5705,28.9000,28.9000/ 
&OBST ID='HotCar17', XB=112.0684,114.5084,154.6898,159.5698,27.4000,28.9000, SURF_ID='INERT'/ 
&VENT ID='HotcarSource17', SURF_ID='HOT CAR', XB=112.0684,114.5084,154.6898,159.5698,28.9000,28.9000/ 
&OBST ID='HotCar18', XB=112.5950,115.0350,171.0273,175.9073,27.4000,28.9000, SURF_ID='INERT'/ 
&VENT ID='HotcarSource18', SURF_ID='HOT CAR', XB=112.5950,115.0350,171.0273,175.9073,28.9000,28.9000/ 
&OBST ID='HotCar19', XB=115.2278,117.6678,171.0264,175.9064,27.4000,28.9000, SURF_ID='INERT'/ 
&VENT ID='HotcarSource19', SURF_ID='HOT CAR', XB=115.2278,117.6678,171.0264,175.9064,28.9000,28.9000/ 
&OBST ID='HotCar20', XB=117.5973,120.0373,171.0255,175.9055,27.4000,28.9000, SURF_ID='INERT'/ 
&VENT ID='HotcarSource20', SURF_ID='HOT CAR', XB=117.5973,120.0373,171.0255,175.9055,28.9000,28.9000/ 
&OBST ID='HotCar21', XB=74.2522,79.1322,216.2672,218.7072,27.4000,28.9000, SURF_ID='INERT'/ 
&VENT ID='HotcarSource21', SURF_ID='HOT CAR', XB=74.2522,79.1322,216.2672,218.7072,28.9000,28.9000/ 
&OBST ID='HotCar22', XB=74.2522,79.1322,213.3686,215.8086,27.4000,28.9000, SURF_ID='INERT'/ 
&VENT ID='HotcarSource22', SURF_ID='HOT CAR', XB=74.2522,79.1322,213.3686,215.8086,28.9000,28.9000/ 
&OBST ID='HotCar23', XB=74.2522,79.1322,211.2605,213.7005,27.4000,28.9000, SURF_ID='INERT'/ 
&VENT ID='HotcarSource23', SURF_ID='HOT CAR', XB=74.2522,79.1322,211.2605,213.7005,28.9000,28.9000/ 
&OBST ID='HotCar24', XB=74.5154,79.3954,208.3617,210.8017,27.4000,28.9000, SURF_ID='INERT'/ 
&VENT ID='HotcarSource24', SURF_ID='HOT CAR', XB=74.5154,79.3954,208.3617,210.8017,28.9000,28.9000/ 
&OBST ID='HotCar25', XB=74.2522,79.1322,206.2537,208.6937,27.4000,28.9000, SURF_ID='INERT'/ 
&VENT ID='HotcarSource25', SURF_ID='HOT CAR', XB=74.2522,79.1322,206.2537,208.6937,28.9000,28.9000/ 
&OBST ID='HotCar26', XB=74.2522,79.1322,203.8821,206.3221,27.4000,28.9000, SURF_ID='INERT'/ 
&VENT ID='HotcarSource26', SURF_ID='HOT CAR', XB=74.2522,79.1322,203.8821,206.3221,28.9000,28.9000/ 
&OBST ID='HotCar27', XB=73.9889,78.8689,154.6055,157.0455,27.4000,28.9000, SURF_ID='INERT'/ 
&VENT ID='HotcarSource27', SURF_ID='HOT CAR', XB=73.9889,78.8689,154.6055,157.0455,28.9000,28.9000/ 
&OBST ID='HotCar28', XB=73.9889,78.8689,152.2339,154.6739,27.4000,28.9000, SURF_ID='INERT'/ 
&VENT ID='HotcarSource28', SURF_ID='HOT CAR', XB=73.9889,78.8689,152.2339,154.6739,28.9000,28.9000/ 
&OBST ID='HotCar29', XB=73.9889,78.8689,149.8623,152.3023,27.4000,28.9000, SURF_ID='INERT'/ 
&VENT ID='HotcarSource29', SURF_ID='HOT CAR', XB=73.9889,78.8689,149.8623,152.3023,28.9000,28.9000/ 
&OBST ID='HotCar30', XB=73.9889,78.8689,158.8217,161.2617,27.4000,28.9000, SURF_ID='INERT'/ 
&VENT ID='HotcarSource30', SURF_ID='HOT CAR', XB=73.9889,78.8689,158.8217,161.2617,28.9000,28.9000/ 
&OBST ID='HotCar31', XB=73.9889,78.8689,161.1933,163.6333,27.4000,28.9000, SURF_ID='INERT'/ 
&VENT ID='HotcarSource31', SURF_ID='HOT CAR', XB=73.9889,78.8689,161.1933,163.6333,28.9000,28.9000/ 
&OBST ID='HotCar32', XB=74.2522,79.1322,163.5648,166.0048,27.4000,28.9000, SURF_ID='INERT'/ 
&VENT ID='HotcarSource32', SURF_ID='HOT CAR', XB=74.2522,79.1322,163.5648,166.0048,28.9000,28.9000/ 
&OBST ID='HotCar33', XB=73.9889,78.8689,166.9905,169.4305,27.4000,28.9000, SURF_ID='INERT'/ 
&VENT ID='HotcarSource33', SURF_ID='HOT CAR', XB=73.9889,78.8689,166.9905,169.4305,28.9000,28.9000/ 
&OBST ID='HotCar34', XB=73.9889,78.8689,169.3622,171.8022,27.4000,28.9000, SURF_ID='INERT'/ 
&VENT ID='HotcarSource34', SURF_ID='HOT CAR', XB=73.9889,78.8689,169.3622,171.8022,28.9000,28.9000/ 
&OBST ID='HotCar35', XB=73.9889,78.8689,171.9973,174.4373,27.4000,28.9000, SURF_ID='INERT'/ 
&VENT ID='HotcarSource35', SURF_ID='HOT CAR', XB=73.9889,78.8689,171.9973,174.4373,28.9000,28.9000/ 
&OBST ID='HotCar36', XB=7.9050,12.7850,174.9197,177.3597,27.4000,28.9000, SURF_ID='INERT'/ 
&VENT ID='HotcarSource36', SURF_ID='HOT CAR', XB=7.9050,12.7850,174.9197,177.3597,28.9000,28.9000/ 
&OBST ID='HotCar37', XB=7.6417,12.5217,178.0819,180.5219,27.4000,28.9000, SURF_ID='INERT'/ 
&VENT ID='HotcarSource37', SURF_ID='HOT CAR', XB=7.6417,12.5217,178.0819,180.5219,28.9000,28.9000/ 
&OBST ID='HotCar38', XB=7.6417,12.5217,180.1900,182.6300,27.4000,28.9000, SURF_ID='INERT'/ 
&VENT ID='HotcarSource38', SURF_ID='HOT CAR', XB=7.6417,12.5217,180.1900,182.6300,28.9000,28.9000/ 
&OBST ID='HotCar39', XB=7.3784,12.2584,183.3523,185.7923,27.4000,28.9000, SURF_ID='INERT'/ 
&VENT ID='HotcarSource39', SURF_ID='HOT CAR', XB=7.3784,12.2584,183.3523,185.7923,28.9000,28.9000/ 
&OBST ID='HotCar40', XB=6.8519,11.7319,186.2511,188.6911,27.4000,28.9000, SURF_ID='INERT'/ 
&VENT ID='HotcarSource40', SURF_ID='HOT CAR', XB=6.8519,11.7319,186.2511,188.6911,28.9000,28.9000/ 
&OBST ID='HotCar41', XB=193.1594,195.5994,187.3361,192.2161,27.4000,28.9000, SURF_ID='INERT'/ 
&VENT ID='HotcarSource41', SURF_ID='HOT CAR', XB=193.1594,195.5994,187.3361,192.2161,28.9000,28.9000/ 
&OBST ID='HotCar42', XB=196.0555,198.4955,187.5986,192.4786,27.4000,28.9000, SURF_ID='INERT'/ 
&VENT ID='HotcarSource42', SURF_ID='HOT CAR', XB=196.0555,198.4955,187.5986,192.4786,28.9000,28.9000/ 
&OBST ID='HotCar43', XB=198.6883,201.1283,187.5976,192.4776,27.4000,28.9000, SURF_ID='INERT'/ 
&VENT ID='HotcarSource43', SURF_ID='HOT CAR', XB=198.6883,201.1283,187.5976,192.4776,28.9000,28.9000/ 
&OBST ID='HotCar44', XB=260.5596,262.9996,214.1901,219.0701,27.4000,28.9000, SURF_ID='INERT'/ 
&VENT ID='HotcarSource44', SURF_ID='HOT CAR', XB=260.5596,262.9996,214.1901,219.0701,28.9000,28.9000/ 
&OBST ID='HotCar45', XB=263.7190,266.1590,214.4524,219.3324,27.4000,28.9000, SURF_ID='INERT'/ 
&VENT ID='HotcarSource45', SURF_ID='HOT CAR', XB=263.7190,266.1590,214.4524,219.3324,28.9000,28.9000/ 
&OBST ID='HotCar46', XB=266.0886,268.5286,214.4516,219.3316,27.4000,28.9000, SURF_ID='INERT'/ 
&VENT ID='HotcarSource46', SURF_ID='HOT CAR', XB=266.0886,268.5286,214.4516,219.3316,28.9000,28.9000/ 
&OBST ID='HotCar47', XB=237.9173,240.3573,197.3334,202.2134,27.4000,28.9000, SURF_ID='INERT'/ 
&VENT ID='HotcarSource47', SURF_ID='HOT CAR', XB=237.9173,240.3573,197.3334,202.2134,28.9000,28.9000/ 
&OBST ID='HotCar48', XB=241.0767,243.5167,197.5958,202.4758,27.4000,28.9000, SURF_ID='INERT'/ 
&VENT ID='HotcarSource48', SURF_ID='HOT CAR', XB=241.0767,243.5167,197.5958,202.4758,28.9000,28.9000/ 
&OBST ID='HotCar49', XB=191.5797,194.0197,149.1274,154.0074,27.4000,28.9000, SURF_ID='INERT'/ 
&VENT ID='HotcarSource49', SURF_ID='HOT CAR', XB=191.5797,194.0197,149.1274,154.0074,28.9000,28.9000/ 
&OBST ID='HotCar50', XB=193.9492,196.3892,148.8630,153.7430,27.4000,28.9000, SURF_ID='INERT'/ 
&VENT ID='HotcarSource50', SURF_ID='HOT CAR', XB=193.9492,196.3892,148.8630,153.7430,28.9000,28.9000/ 
&OBST ID='HotCar51', XB=182.6281,185.0681,187.6034,192.4834,27.4000,28.9000, SURF_ID='INERT'/ 
&VENT ID='HotcarSource51', SURF_ID='HOT CAR', XB=182.6281,185.0681,187.6034,192.4834,28.9000,28.9000/ 
&OBST ID='HotCar52', XB=184.7343,187.1743,187.3391,192.2191,27.4000,28.9000, SURF_ID='INERT'/ 
&VENT ID='HotcarSource52', SURF_ID='HOT CAR', XB=184.7343,187.1743,187.3391,192.2191,28.9000,28.9000/ 
&OBST ID='HotCar53', XB=187.3671,189.8071,187.6017,192.4817,27.4000,28.9000, SURF_ID='INERT'/ 
&VENT ID='HotcarSource53', SURF_ID='HOT CAR', XB=187.3671,189.8071,187.6017,192.4817,28.9000,28.9000/ 
&OBST ID='HotCar54', XB=-1.8364,3.0436,188.6258,191.0658,27.4000,28.9000, SURF_ID='INERT'/ 
&VENT ID='HotcarSource54', SURF_ID='HOT CAR', XB=-1.8364,3.0436,188.6258,191.0658,28.9000,28.9000/ 
&OBST ID='HotCar55', XB=-2.0997,2.7803,186.5178,188.9578,27.4000,28.9000, SURF_ID='INERT'/ 
&VENT ID='HotcarSource55', SURF_ID='HOT CAR', XB=-2.0997,2.7803,186.5178,188.9578,28.9000,28.9000/ 
&OBST ID='HotCar56', XB=-2.3630,2.5170,182.8287,185.2687,27.4000,28.9000, SURF_ID='INERT'/ 
&VENT ID='HotcarSource56', SURF_ID='HOT CAR', XB=-2.3630,2.5170,182.8287,185.2687,28.9000,28.9000/ 
&OBST ID='HotCar57', XB=153.4037,155.8437,171.8032,176.6832,27.4000,28.9000, SURF_ID='INERT'/ 
&VENT ID='HotcarSource57', SURF_ID='HOT CAR', XB=153.4037,155.8437,171.8032,176.6832,28.9000,28.9000/ 
&OBST ID='HotCar58', XB=155.7733,158.2133,171.8023,176.6823,27.4000,28.9000, SURF_ID='INERT'/ 
&VENT ID='HotcarSource58', SURF_ID='HOT CAR', XB=155.7733,158.2133,171.8023,176.6823,28.9000,28.9000/ 
&OBST ID='HotCar59', XB=158.1428,160.5828,171.5380,176.4180,27.4000,28.9000, SURF_ID='INERT'/ 
&VENT ID='HotcarSource59', SURF_ID='HOT CAR', XB=158.1428,160.5828,171.5380,176.4180,28.9000,28.9000/ 
&OBST ID='HotCar60', XB=161.3022,163.7422,171.8003,176.6803,27.4000,28.9000, SURF_ID='INERT'/ 
&VENT ID='HotcarSource60', SURF_ID='HOT CAR', XB=161.3022,163.7422,171.8003,176.6803,28.9000,28.9000/ 
&OBST ID='HotCar61', XB=109.6989,112.1389,180.7783,185.6583,27.4000,28.9000, SURF_ID='INERT'/ 
&VENT ID='HotcarSource61', SURF_ID='HOT CAR', XB=109.6989,112.1389,180.7783,185.6583,28.9000,28.9000/ 
&OBST ID='HotCar62', XB=112.3317,114.7717,180.5139,185.3939,27.4000,28.9000, SURF_ID='INERT'/ 
&VENT ID='HotcarSource62', SURF_ID='HOT CAR', XB=112.3317,114.7717,180.5139,185.3939,28.9000,28.9000/ 
&OBST ID='HotCar63', XB=114.9645,117.4045,180.7764,185.6564,27.4000,28.9000, SURF_ID='INERT'/ 
&VENT ID='HotcarSource63', SURF_ID='HOT CAR', XB=114.9645,117.4045,180.7764,185.6564,28.9000,28.9000/ 
&OBST ID='HotCar64', XB=117.5973,120.0373,180.7755,185.6555,27.4000,28.9000, SURF_ID='INERT'/ 
&VENT ID='HotcarSource64', SURF_ID='HOT CAR', XB=117.5973,120.0373,180.7755,185.6555,28.9000,28.9000/ 
&OBST ID='HotCar65', XB=121.2833,123.7233,182.6187,187.4987,27.4000,28.9000, SURF_ID='INERT'/ 
&VENT ID='HotcarSource65', SURF_ID='HOT CAR', XB=121.2833,123.7233,182.6187,187.4987,28.9000,28.9000/ 
&OBST ID='HotCar66', XB=123.6528,126.0928,182.6179,187.4979,27.4000,28.9000, SURF_ID='INERT'/ 
&VENT ID='HotcarSource66', SURF_ID='HOT CAR', XB=123.6528,126.0928,182.6179,187.4979,28.9000,28.9000/ 
&OBST ID='HotCar67', XB=216.8548,219.2948,214.9963,219.8763,27.4000,28.9000, SURF_ID='INERT'/ 
&VENT ID='HotcarSource67', SURF_ID='HOT CAR', XB=216.8548,219.2948,214.9963,219.8763,28.9000,28.9000/ 
&OBST ID='HotCar68', XB=220.0142,222.4542,214.7317,219.6117,27.4000,28.9000, SURF_ID='INERT'/ 
&VENT ID='HotcarSource68', SURF_ID='HOT CAR', XB=220.0142,222.4542,214.7317,219.6117,28.9000,28.9000/ 
&OBST ID='HotCar69', XB=14.1274,16.5674,214.2787,219.1587,27.4000,28.9000, SURF_ID='INERT'/ 
&VENT ID='HotcarSource69', SURF_ID='HOT CAR', XB=14.1274,16.5674,214.2787,219.1587,28.9000,28.9000/ 
&OBST ID='HotCar70', XB=17.5500,19.9900,214.5410,219.4210,27.4000,28.9000, SURF_ID='INERT'/ 
&VENT ID='HotcarSource70', SURF_ID='HOT CAR', XB=17.5500,19.9900,214.5410,219.4210,28.9000,28.9000/ 
&OBST ID='HotCar71', XB=20.7094,23.1494,214.2764,219.1564,27.4000,28.9000, SURF_ID='INERT'/ 
&VENT ID='HotcarSource71', SURF_ID='HOT CAR', XB=20.7094,23.1494,214.2764,219.1564,28.9000,28.9000/ 
&OBST ID='HotCar72', XB=23.0790,25.5190,214.5390,219.4190,27.4000,28.9000, SURF_ID='INERT'/ 
&VENT ID='HotcarSource72', SURF_ID='HOT CAR', XB=23.0790,25.5190,214.5390,219.4190,28.9000,28.9000/ 
&OBST ID='HotCar73', XB=41.5087,43.9487,211.3703,216.2503,27.4000,28.9000, SURF_ID='INERT'/ 
&VENT ID='HotcarSource73', SURF_ID='HOT CAR', XB=41.5087,43.9487,211.3703,216.2503,28.9000,28.9000/ 
&OBST ID='HotCar74', XB=44.4048,46.8448,211.1057,215.9857,27.4000,28.9000, SURF_ID='INERT'/ 
&VENT ID='HotcarSource74', SURF_ID='HOT CAR', XB=44.4048,46.8448,211.1057,215.9857,28.9000,28.9000/ 
&OBST ID='HotCar75', XB=20.9727,23.4127,196.8845,201.7645,27.4000,28.9000, SURF_ID='INERT'/ 
&VENT ID='HotcarSource75', SURF_ID='HOT CAR', XB=20.9727,23.4127,196.8845,201.7645,28.9000,28.9000/ 
&OBST ID='HotCar76', XB=23.3423,25.7823,197.1471,202.0271,27.4000,28.9000, SURF_ID='INERT'/ 
&VENT ID='HotcarSource76', SURF_ID='HOT CAR', XB=23.3423,25.7823,197.1471,202.0271,28.9000,28.9000/ 
&OBST ID='HotCar77', XB=-21.3193,-16.4393,221.3083,223.7483,27.4000,28.9000, SURF_ID='INERT'/ 
&VENT ID='HotcarSource77', SURF_ID='HOT CAR', XB=-21.3193,-16.4393,221.3083,223.7483,28.9000,28.9000/ 
&OBST ID='HotCar78', XB=-21.0561,-16.1761,218.6731,221.1131,27.4000,28.9000, SURF_ID='INERT'/ 
&VENT ID='HotcarSource78', SURF_ID='HOT CAR', XB=-21.0561,-16.1761,218.6731,221.1131,28.9000,28.9000/ 
&OBST ID='HotCar79', XB=-20.7928,-15.9128,216.3014,218.7414,27.4000,28.9000, SURF_ID='INERT'/ 
&VENT ID='HotcarSource79', SURF_ID='HOT CAR', XB=-20.7928,-15.9128,216.3014,218.7414,28.9000,28.9000/ 
&OBST ID='HotCar80', XB=-22.3725,-17.4925,208.1331,210.5731,27.4000,28.9000, SURF_ID='INERT'/ 
&VENT ID='HotcarSource80', SURF_ID='HOT CAR', XB=-22.3725,-17.4925,208.1331,210.5731,28.9000,28.9000/ 
&OBST ID='HotCar81', XB=-23.1623,-18.2823,205.7618,208.2018,27.4000,28.9000, SURF_ID='INERT'/ 
&VENT ID='HotcarSource81', SURF_ID='HOT CAR', XB=-23.1623,-18.2823,205.7618,208.2018,28.9000,28.9000/ 
&OBST ID='HotCar82', XB=-10.2615,-5.3815,216.8246,219.2646,27.4000,28.9000, SURF_ID='INERT'/ 
&VENT ID='HotcarSource82', SURF_ID='HOT CAR', XB=-10.2615,-5.3815,216.8246,219.2646,28.9000,28.9000/ 
&OBST ID='HotCar83', XB=-10.2615,-5.3815,214.4530,216.8930,27.4000,28.9000, SURF_ID='INERT'/ 
&VENT ID='HotcarSource83', SURF_ID='HOT CAR', XB=-10.2615,-5.3815,214.4530,216.8930,28.9000,28.9000/ 
&OBST ID='HotCar84', XB=232.7481,237.6281,212.5210,214.9610,27.4000,28.9000, SURF_ID='INERT'/ 
&VENT ID='HotcarSource84', SURF_ID='HOT CAR', XB=232.7481,237.6281,212.5210,214.9610,28.9000,28.9000/ 
&OBST ID='HotCar85', XB=232.4848,237.3648,210.1495,212.5895,27.4000,28.9000, SURF_ID='INERT'/ 
&VENT ID='HotcarSource85', SURF_ID='HOT CAR', XB=232.4848,237.3648,210.1495,212.5895,28.9000,28.9000/ 
&OBST ID='HotCar86', XB=233.2747,238.1547,216.4735,218.9135,27.4000,28.9000, SURF_ID='INERT'/ 
&VENT ID='HotcarSource86', SURF_ID='HOT CAR', XB=233.2747,238.1547,216.4735,218.9135,28.9000,28.9000/ 
&OBST ID='HotCar87', XB=61.8779,66.7579,170.9476,173.3876,27.4000,28.9000, SURF_ID='INERT'/ 
&VENT ID='HotcarSource87', SURF_ID='HOT CAR', XB=61.8779,66.7579,170.9476,173.3876,28.9000,28.9000/ 
&OBST ID='HotCar88', XB=61.6146,66.4946,173.3193,175.7593,27.4000,28.9000, SURF_ID='INERT'/ 
&VENT ID='HotcarSource88', SURF_ID='HOT CAR', XB=61.6146,66.4946,173.3193,175.7593,28.9000,28.9000/ 
&OBST ID='HotCar89', XB=61.3513,66.2313,176.2180,178.6580,27.4000,28.9000, SURF_ID='INERT'/ 
&VENT ID='HotcarSource89', SURF_ID='HOT CAR', XB=61.3513,66.2313,176.2180,178.6580,28.9000,28.9000/ 
&OBST ID='HotCar90', XB=61.8779,66.7579,179.1165,181.5565,27.4000,28.9000, SURF_ID='INERT'/ 
&VENT ID='HotcarSource90', SURF_ID='HOT CAR', XB=61.8779,66.7579,179.1165,181.5565,28.9000,28.9000/ 
&OBST ID='HotCar91', XB=67.1435,72.0235,216.5333,218.9733,27.4000,28.9000, SURF_ID='INERT'/ 
&VENT ID='HotcarSource91', SURF_ID='HOT CAR', XB=67.1435,72.0235,216.5333,218.9733,28.9000,28.9000/ 
&OBST ID='HotCar92', XB=67.1435,72.0235,219.1684,221.6084,27.4000,28.9000, SURF_ID='INERT'/ 
&VENT ID='HotcarSource92', SURF_ID='HOT CAR', XB=67.1435,72.0235,219.1684,221.6084,28.9000,28.9000/ 
&OBST ID='HotCar93', XB=67.4068,72.2868,209.1548,211.5948,27.4000,28.9000, SURF_ID='INERT'/ 
&VENT ID='HotcarSource93', SURF_ID='HOT CAR', XB=67.4068,72.2868,209.1548,211.5948,28.9000,28.9000/ 
&OBST ID='HotCar94', XB=67.4068,72.2868,205.9927,208.4327,27.4000,28.9000, SURF_ID='INERT'/ 
&VENT ID='HotcarSource94', SURF_ID='HOT CAR', XB=67.4068,72.2868,205.9927,208.4327,28.9000,28.9000/ 
&OBST ID='HotCar95', XB=67.4068,72.2868,203.8846,206.3246,27.4000,28.9000, SURF_ID='INERT'/ 
&VENT ID='HotcarSource95', SURF_ID='HOT CAR', XB=67.4068,72.2868,203.8846,206.3246,28.9000,28.9000/ 
&OBST ID='HotCar96', XB=243.8060,248.6860,160.6051,163.0451,27.4000,28.9000, SURF_ID='INERT'/ 
&VENT ID='HotcarSource96', SURF_ID='HOT CAR', XB=243.8060,248.6860,160.6051,163.0451,28.9000,28.9000/ 
&OBST ID='HotCar97', XB=84.9503,87.3903,170.5103,175.3903,27.4000,28.9000, SURF_ID='INERT'/ 
&VENT ID='HotcarSource97', SURF_ID='HOT CAR', XB=84.9503,87.3903,170.5103,175.3903,28.9000,28.9000/ 
&OBST ID='HotCar98', XB=88.1097,90.5497,171.0361,175.9161,27.4000,28.9000, SURF_ID='INERT'/ 
&VENT ID='HotcarSource98', SURF_ID='HOT CAR', XB=88.1097,90.5497,171.0361,175.9161,28.9000,28.9000/ 
&OBST ID='HotCar99', XB=91.0058,93.4458,171.0351,175.9151,27.4000,28.9000, SURF_ID='INERT'/ 
&VENT ID='HotcarSource99', SURF_ID='HOT CAR', XB=91.0058,93.4458,171.0351,175.9151,28.9000,28.9000/ 
&OBST ID='HotCar100', XB=215.0118,217.4518,187.3282,192.2082,27.4000,28.9000, SURF_ID='INERT'/ 
&VENT ID='HotcarSource100', SURF_ID='HOT CAR', XB=215.0118,217.4518,187.3282,192.2082,28.9000,28.9000/ 
&OBST ID='HotCar101', XB=217.3813,219.8213,187.5909,192.4709,27.4000,28.9000, SURF_ID='INERT'/ 
&VENT ID='HotcarSource101', SURF_ID='HOT CAR', XB=217.3813,219.8213,187.5909,192.4709,28.9000,28.9000/ 
&OBST ID='HotCar102', XB=220.0142,222.4542,187.3264,192.2064,27.4000,28.9000, SURF_ID='INERT'/ 
&VENT ID='HotcarSource102', SURF_ID='HOT CAR', XB=220.0142,222.4542,187.3264,192.2064,28.9000,28.9000/ 
&OBST ID='HotCar103', XB=-12.9907,-10.5507,201.6399,206.5199,27.4000,28.9000, SURF_ID='INERT'/ 
&VENT ID='HotcarSource103', SURF_ID='HOT CAR', XB=-12.9907,-10.5507,201.6399,206.5199,28.9000,28.9000/ 
&OBST ID='HotCar104', XB=29.9243,32.3643,203.7326,208.6126,27.4000,28.9000, SURF_ID='INERT'/ 
&VENT ID='HotcarSource104', SURF_ID='HOT CAR', XB=29.9243,32.3643,203.7326,208.6126,28.9000,28.9000/ 
&OBST ID='HotCar105', XB=32.5571,34.9971,204.7857,209.6657,27.4000,28.9000, SURF_ID='INERT'/ 
&VENT ID='HotcarSource105', SURF_ID='HOT CAR', XB=32.5571,34.9971,204.7857,209.6657,28.9000,28.9000/ 
&OBST ID='HotCar106', XB=27.5548,29.9948,203.9969,208.8769,27.4000,28.9000, SURF_ID='INERT'/ 
&VENT ID='HotcarSource106', SURF_ID='HOT CAR', XB=27.5548,29.9948,203.9969,208.8769,28.9000,28.9000/ 
&OBST ID='HotCar107', XB=150.2443,152.6843,198.1555,203.0355,27.4000,28.9000, SURF_ID='INERT'/ 
&VENT ID='HotcarSource107', SURF_ID='HOT CAR', XB=150.2443,152.6843,198.1555,203.0355,28.9000,28.9000/ 
&OBST ID='HotCar108', XB=147.6115,150.0515,197.6294,202.5094,27.4000,28.9000, SURF_ID='INERT'/ 
&VENT ID='HotcarSource108', SURF_ID='HOT CAR', XB=147.6115,150.0515,197.6294,202.5094,28.9000,28.9000/ 
&OBST ID='HotCar109', XB=144.7154,147.1554,198.1575,203.0375,27.4000,28.9000, SURF_ID='INERT'/ 
&VENT ID='HotcarSource109', SURF_ID='HOT CAR', XB=144.7154,147.1554,198.1575,203.0375,28.9000,28.9000/ 
