&OBST ID='HotCarINDEX', XB=XMIN,XMAX,YMIN,YMAX,ZMIN,ZMAX, SURF_ID='INERT'/ 
&VENT ID='HotcarSourceINDEX', SURF_ID='HOT CAR', XB=XMIN,XMAX,YMIN,YMAX,ZMAX,ZMAX/ 